test/data/matpower/case5_multi_gen.m
% used in tests of,
% - non-contiguous bus ids
% - tranformer orentation swapping
% - dual values
% - clipping cost functions using ncost
% - linear objective function
% - bus type correction

function mpc = case5_multi_gen
mpc.version = '2';
mpc.baseMVA = 100.0;

%% bus data
%	bus_i	type	Pd	Qd	Gs	Bs	area	Vm	Va	baseKV	zone	Vmax	Vmin
mpc.bus = [
	1	 2	 350.0	 0.0	 0.0	 0.0	 1	    1.00000	    2.80377	 230.0	 1	    1.10000	    0.90000;
	2	 1	 350.0	 98.61	 0.0	 0.0	 1	    1.08407	   -0.73465	 230.0	 1	    1.10000	    0.90000;
	3	 0	 300.0	 98.61	 0.0	 0.0	 1	    1.00000	   -0.55972	 230.0	 1	    1.10000	    0.90000;
	4	 3	 350.0	 131.47	 0.0	 0.0	 1	    1.00000	    0.00000	 230.0	 1	    1.10000	    0.90000;
	10	 2	 400.0	 0.0	 0.0	 0.0	 1	    1.00000	    3.59033	 230.0	 1	    1.10000	    0.90000;
];

%% generator data
%	bus	Pg		Qg		Qmax	  Qmin	   Vg	    mBase	status	 Pmax	  Pmin	  	H
mpc.gen = [
	1	 0.		 0.	 	30.0	 -30.0	   1.07762  100.0	 1	 700.0	  50.	    	1;
    1	 0.		 0.	 	30.0	 -30.0	   1.07762  100.0	 1	 700.0	  50.	    	5;
    1	 0.		 0.	 	30.0	 -30.0	   1.07762  100.0	 1	 700.0	  50.	    	10;
	2	 0.		 0.		127.5	 -127.5	   1.07762  100.0	 1	 700.0	  50.	    	1;
	2	 0.		 0.		127.5	 -127.5	   1.07762  100.0	 1	 700.0	  50.	    	5;
	2	 0.		 0.		127.5	 -127.5	   1.07762  100.0	 1	 700.0	  50.	    	10;
	3	 0.		 0.	 	390.0	 -390.0	   1.1	    100.0	 1	 400.0	  50.	    	1;
	3	 0.		 0.	 	390.0	 -390.0	   1.1	    100.0	 1	 400.0	  50.	    	5;
	3	 0.		 0.	 	390.0	 -390.0	   1.1	    100.0	 1	 400.0	  50.	    	10;
	4	 0.		 0.		150.0	 -150.0	   1.06414  100.0	 1	 700.0	  50.	    	1;
	4	 0.		 0.		150.0	 -150.0	   1.06414  100.0	 1	 700.0	  50.	    	5;
	4	 0.		 0.		150.0	 -150.0	   1.06414  100.0	 1	 700.0	  50.	    	10;
    10	 0.		 0.		450.0	 -450.0	   1.06907  100.0	 1	 1000.0	  50.	    	5;
    10	 0.		 0.		450.0	 -450.0	   1.06907  100.0	 1	 1000.0	  50.	    	8;
	10	 0.		 0.		450.0	 -450.0	   1.06907  100.0	 1	 1000.0	  50.	    	12;
];

%% generator cost data
%	2	startup	shutdown	n	c(n-1)	...	c0
mpc.gencost = [
	2	 0.0	 0.0	 3	   0.000000	  10.000000	   0.000000	   0.000000;
	2	 0.0	 0.0	 3	   0.000000	  50.000000	   0.000000	   0.000000;
	2	 0.0	 0.0	 3	   0.000000	  100.000000	   0.000000	   0.000000;
	2	 0.0	 0.0	 3	   0.000000	  10.000000	   0.000000	   0.000000;
	2	 0.0	 0.0	 3	   0.000000	  50.000000	   0.000000	   0.000000;
    2	 0.0	 0.0	 3	   0.000000	  100.000000	   0.000000	   0.000000;
	2	 0.0	 0.0	 3	   0.000000	  10.000000	   0.000000	   0.000000;
	2	 0.0	 0.0	 3	   0.000000	  50.000000	   0.000000	   0.000000;
	2	 0.0	 0.0	 3	   0.000000	  100.000000	   0.000000	   0.000000;
	2	 0.0	 0.0	 3	   0.000000	  12.000000	   0.000000	   0.000000;
	2	 0.0	 0.0	 3	   0.000000	  50.000000	   0.000000	   0.000000;
	2	 0.0	 0.0	 3	   0.000000	  100.000000	   0.000000	   0.000000;
	2	 0.0	 0.0	 3	   0.000000	  100.000000	   0.000000	   0.000000;
	2	 0.0	 0.0	 3	   0.000000	  120.000000	   0.000000	   0.000000;
	2	 0.0	 0.0	 3	   0.000000	  180.000000	   0.000000	   0.000000;
];

%% branch data
%	fbus	tbus	r	x	b	rateA	rateB	rateC	ratio	angle	status	angmin	angmax
mpc.branch = [
	1	 2	 0.00281	 0.0281	 0.00	 400.0	 400.0	 400.0	 0.0	  0.0	 1	 -30.0	 30.0;
	1	 4	 0.00304	 0.0304	 0.00	 426	 426	 426	 0.0	  0.0	 1	 -30.0	 30.0;
	1	 10	 0.00064	 0.0064	 0.00	 426	 426	 426	 0.0	  0.0	 1	 -30.0	 30.0;
	2	 3	 0.00108	 0.0108	 0.00	 426	 426	 426	 0.0	  0.0	 1	 -30.0	 30.0;
	3	 4	 0.00297	 0.0297	 0.00	 426	 426	 426	 1.05	  1.0	 1	 -30.0	 30.0;
	4	 3	 0.00297	 0.0297	 0.00	 426	 426	 426	 1.05	 -1.0	 1	 -30.0	 30.0;
	4	 10	 0.00297	 0.0297	 0.00	 240.0	 240.0	 240.0	 0.0	  0.0	 1	 -30.0	 30.0;
];

